powerflow/autotest/test_balanced_stepup_D-D_NR.glm
// $id$
//	Copyright (C) 2008 Battelle Memorial Institute

// 4 Node Feeder: Balanced step-up delta-delta

clock {
	timestamp '2000-01-01 0:00:00';
	timezone EST+5EDT;
}

//#define stylesheet="C:\Users\Jason\Documents\GridLAB-D\trunk\VS2005\gridlabd-2_0";
module powerflow { solver_method NR; };
module assert;

object overhead_line_conductor:100 {
	geometric_mean_radius 0.0244;
	resistance 0.306;
}

object overhead_line_conductor:101 {
	geometric_mean_radius 0.00814;
	resistance 0.592;
}

object line_spacing:200 {
	distance_AB 2.5;
	distance_BC 4.5;
	distance_AC 7.0;
	distance_AN 5.656854;
	distance_BN 4.272002;
	distance_CN 5.0;
}

object line_configuration:300 {
	conductor_A overhead_line_conductor:100;
	conductor_B overhead_line_conductor:100;
	conductor_C overhead_line_conductor:100;
	conductor_N overhead_line_conductor:101;
	spacing line_spacing:200;
}

object transformer_configuration:400 {
	connect_type DELTA_DELTA;
	power_rating 6000;
	primary_voltage 12470;
	secondary_voltage 24900;
	resistance 0.01;
	reactance 0.06;
}

object node:1 {
	phases "ABCD";
	voltage_A +7199.558+0.000j;
	voltage_B -3599.779-6235.000j;
	voltage_C -3599.779+6235.000j;
	bustype SWING;
	nominal_voltage 7200;
}

object overhead_line:12 {
	phases "ABCD";
	from node:1;
	to node:2;
	length 2000;
	configuration line_configuration:300;
	object complex_assert {
		target current_in_A;
		within 5;
		value 292.4-29.3d;
	};
	object complex_assert {
		target current_in_B;
		within 10;
		value 292.3-149.3d;
	};
	object complex_assert {
		target current_in_C;
		within 5;
		value 292.4+90.7d;
	};
}

object node:2 {
	phases "ABCD";
	voltage_A +7199.558+0.000j;
	voltage_B -3599.779-6235.000j;
	voltage_C -3599.779+6235.000j;
	nominal_voltage 7200;
	object complex_assert {
		target voltage_AB;
		within 5;
		value 12361+29.7d;
	};
	object complex_assert {
		target voltage_BC;
		within 5;
		value 12372-90.4d;
	};
	object complex_assert {
		target voltage_CA;
		within 5;
		value 12348+149.6d;
	};
}

object transformer:23 {
	phases "ABCD";
	from node:2;
	to node:3;
	configuration transformer_configuration:400;
}

object node:3 {
	phases "ABCD";
	voltage_A +14376.022+0.000j;
	voltage_B -7188.011-12450.000j;
	voltage_C -7188.011+12450.000j;
	nominal_voltage 14376;
	object complex_assert {
		target voltage_AB;
		within 5;
		value 23723+26.7d;
	};
	object complex_assert {
		target voltage_BC;
		within 5;
		value 23746-93.4d;
	};
	object complex_assert {
		target voltage_CA;
		within 5;
		value 23698+146.6d;
	};
}

object overhead_line:34 {
	phases "ABCD";
	from node:3;
	to load:4;
	length 2500;
	configuration line_configuration:300;
	object complex_assert {
		target current_in_A;
		within 5;
		value 146.4-29.3d;
	};
	object complex_assert {
		target current_in_B;
		within 10;
		value 146.4-149.3d;
	};
	object complex_assert {
		target current_in_C;
		within 5;
		value 146.4+90.7d;
	};
}

object load:4 {
	phases "ABCD";
	voltage_A +14376.022+0.000j;
	voltage_B -7188.011-12450.000j;
	voltage_C -7188.011+12450.000j;
	constant_power_A +1800000.000+871779.789j;
	constant_power_B +1800000.000+871779.789j;
	constant_power_C +1800000.000+871779.789j;
	nominal_voltage 14376;
	object complex_assert {
		target voltage_AB;
		within 17;
		value 23657+26.6d;
	};
	object complex_assert {
		target voltage_BC;
		within 17;
		value 23688-93.5d;
	};
	object complex_assert {
		target voltage_CA;
		within 17;
		value 23625+146.5d;
	};
}

